#######################################################################
#
#                 Optimized ZIF CIF
# 
#######################################################################
# 
#  This CIF contains data corresponding to the publication: 
#  "Comparing gas separation performance between all known zeolites and 
#  their Zeolitic Imidazolate Framework counterparts"
#  Paula Gómez-Álvarez1, Said Hamad1, Maciej Haranczyk2, 
#  A. Rabdel Ruiz-Salvador1,* and Sofia Calero1,*  
#  [1] Department of Physical, Chemical and Natural Systems. University 
#  Pablo Olavide. Ctra. Utrera km. 1, 41013, Seville, Spain
#  [2] Lawrence Berkeley National Laboratory, Computational Research 
#  Division, Berkeley, CA 94720 USA 
#
#  ZIF were automatically built with TOBUNPOROUS code:                 
#  Rodriguez-Albelo, L. M.; Ruiz-Salvador, A. R.; Sampieri, A.; Lewis, 
#  D. W.; Gomez, A.; Nohra, B.; Mialane, P.; Marrot, J.; Secheresse, F.; 
#  Mellot-Draznieks, C.; Biboum, R. N.; Keita, B.; Nadjo, L.; Dolbecq, A. 
#  Zeolitic Polyoxometalate-based Metal-Organic Framewroks (Z-POMOFs): 
#  Computational evaluation of hypothetical polymorphs and the successful targeted 
#  synthesis of the redix-active Z-POMOF1. J. Am. Chem. Soc. 2009, 131, 16078
#  
#  Lewis, D. W.; Ruiz-Salvador, A. R.; Gómez, A.; Rodriguez-Albelo, 
#  L. M.; Coudert, F.-X.; Slater, B.; Cheetham, A. K.; Mellot-Draznieks, C.
#  Zeolitic imidazolate frameworks: structural and energetics trends 
#  compared with their zeolite analogues. CrystEngComm 2009, 11, 2272.
#
#  Built ZIF were optimized by energy minimization
#
#  For any question please contact: 
#  Dr. A. Rabdel Ruiz-Salvador rruisal@acu.upo.es
#
####################################################################### 

data_cif

_audit_creation_method             'generated by GULP'

_symmetry_space_group_name_H-M     'P 1'
_symmetry_Int_Tables_number        1
_symmetry_cell_setting             triclinic

_cell_length_a                       31.9544
_cell_length_b                       31.9540
_cell_length_c                       31.9540
_cell_angle_alpha                  109.4710
_cell_angle_beta                   109.4710
_cell_angle_gamma                  109.4710

loop_
_atom_site_label
_atom_site_fract_x
_atom_site_fract_y
_atom_site_fract_z
_atom_site_charge
Zn    0.52159    0.40347    0.28482   2.0000 
Zn    0.11865    0.23678    0.71518   2.0000 
Zn    0.47841    0.76322    0.88187   2.0000 
Zn    0.88135    0.59653    0.11813   2.0000 
Zn    0.28482    0.52159    0.40347   2.0000 
Zn    0.40347    0.28482    0.52159   2.0000 
Zn    0.11813    0.88135    0.59653   2.0000 
Zn    0.23678    0.71518    0.11865   2.0000 
Zn    0.71518    0.11865    0.23678   2.0000 
Zn    0.76322    0.88187    0.47841   2.0000 
Zn    0.88187    0.47841    0.76322   2.0000 
Zn    0.59653    0.11813    0.88135   2.0000 
Zn    0.59653    0.47841    0.71518   2.0000 
Zn    0.76322    0.88135    0.28482   2.0000 
Zn    0.23678    0.52159    0.11813   2.0000 
Zn    0.40347    0.11865    0.88187   2.0000 
Zn    0.47841    0.71518    0.59653   2.0000 
Zn    0.71518    0.59653    0.47841   2.0000 
Zn    0.11865    0.88187    0.40347   2.0000 
Zn    0.28482    0.76322    0.88135   2.0000 
Zn    0.88135    0.28482    0.76322   2.0000 
Zn    0.11813    0.23678    0.52159   2.0000 
Zn    0.52159    0.11813    0.23678   2.0000 
Zn    0.88187    0.40347    0.11865   2.0000 
Zn    0.47841    0.59653    0.71518   2.0000 
Zn    0.88135    0.76322    0.28482   2.0000 
Zn    0.52159    0.23678    0.11813   2.0000 
Zn    0.11865    0.40347    0.88187   2.0000 
Zn    0.71518    0.47841    0.59653   2.0000 
Zn    0.59653    0.71518    0.47841   2.0000 
Zn    0.88187    0.11865    0.40347   2.0000 
Zn    0.76322    0.28482    0.88135   2.0000 
Zn    0.28482    0.88135    0.76322   2.0000 
Zn    0.23678    0.11813    0.52159   2.0000 
Zn    0.11813    0.52159    0.23678   2.0000 
Zn    0.40347    0.88187    0.11865   2.0000 
Zn    0.40347    0.52159    0.28482   2.0000 
Zn    0.23678    0.11865    0.71518   2.0000 
Zn    0.76322    0.47841    0.88187   2.0000 
Zn    0.59653    0.88135    0.11813   2.0000 
Zn    0.52159    0.28482    0.40347   2.0000 
Zn    0.28482    0.40347    0.52159   2.0000 
Zn    0.88135    0.11813    0.59653   2.0000 
Zn    0.71518    0.23678    0.11865   2.0000 
Zn    0.11865    0.71518    0.23678   2.0000 
Zn    0.88187    0.76322    0.47841   2.0000 
Zn    0.47841    0.88187    0.76322   2.0000 
Zn    0.11813    0.59653    0.88135   2.0000 
C1    0.52660    0.31746    0.20689   0.0810 
N1    0.52639    0.36239    0.22465  -0.5610 
N1    0.52589    0.30255    0.16140  -0.5610 
C2    0.52549    0.37672    0.18825  -0.1540 
C2    0.52518    0.34027    0.14973  -0.1540 
H1    0.52727    0.29586    0.22684   0.1070 
H2    0.52451    0.33855    0.11503   0.1210 
H2    0.52512    0.41165    0.19227   0.1210 
C1    0.11051    0.31980    0.79296   0.0810 
N1    0.13770    0.30183    0.77523  -0.5610 
N1    0.14110    0.36458    0.83845  -0.5610 
C2    0.18842    0.33732    0.81164  -0.1540 
C2    0.19049    0.37554    0.85015  -0.1540 
H1    0.06898    0.30054    0.77300   0.1070 
H2    0.22347    0.40957    0.88486   0.1210 
H2    0.21933    0.33293    0.80763   0.1210 
C1    0.47342    0.68029    0.79086   0.0810 
N1    0.47364    0.69826    0.83601  -0.5610 
N1    0.47412    0.63551    0.77666  -0.5610 
C2    0.47453    0.66275    0.85123  -0.1540 
C2    0.47482    0.62453    0.81508  -0.1540 
H1    0.47275    0.69957    0.76860   0.1070 
H2    0.47549    0.59049    0.81402   0.1210 
H2    0.47490    0.66714    0.88652   0.1210 
C1    0.88951    0.68244    0.20934   0.0810 
N1    0.86233    0.63751    0.16418  -0.5610 
N1    0.85891    0.69733    0.22352  -0.5610 
C2    0.81161    0.62319    0.14894  -0.1540 
C2    0.80952    0.65963    0.18508  -0.1540 
H1    0.93103    0.70401    0.23161   0.1070 
H2    0.77653    0.66134    0.18612   0.1210 
H2    0.78071    0.58827    0.11364   0.1210 
C1    0.20688    0.52654    0.31746   0.0810 
N1    0.22460    0.52634    0.36240  -0.5610 
N1    0.16138    0.52582    0.30252  -0.5610 
C2    0.18818    0.52543    0.37669  -0.1540 
C2    0.14968    0.52512    0.34022  -0.1540 
H1    0.22685    0.52721    0.29589   0.1070 
H2    0.11497    0.52445    0.33847   0.1210 
H2    0.19218    0.52507    0.41162   0.1210 
C1    0.31740    0.20683    0.52653   0.0810 
N1    0.36233    0.22462    0.52631  -0.5610 
N1    0.30253    0.16134    0.52582  -0.5610 
C2    0.37669    0.18824    0.52542  -0.1540 
C2    0.34027    0.14970    0.52512  -0.1540 
H1    0.29579    0.22675    0.52719   0.1070 
H2    0.33858    0.11501    0.52445   0.1210 
H2    0.41163    0.19229    0.52505   0.1210 
C1    0.20935    0.88951    0.68247   0.0810 
N1    0.16419    0.86236    0.63755  -0.5610 
N1    0.22351    0.85888    0.69733  -0.5610 
C2    0.14892    0.81163    0.62319  -0.1540 
C2    0.18505    0.80951    0.65961  -0.1540 
H1    0.23165    0.93104    0.70407   0.1070 
H2    0.18606    0.77650    0.66129   0.1210 
H2    0.11362    0.78075    0.58827   0.1210 
C1    0.31979    0.79293    0.11051   0.0810 
N1    0.30185    0.77523    0.13774  -0.5610 
N1    0.36457    0.83843    0.14107  -0.5610 
C2    0.33736    0.81166    0.18844  -0.1540 
C2    0.37556    0.85015    0.19047  -0.1540 
H1    0.30051    0.77295    0.06898   0.1070 
H2    0.40960    0.88487    0.22344   0.1210 
H2    0.33299    0.80768    0.21937   0.1210 
C1    0.79294    0.11052    0.31978   0.0810 
N1    0.77524    0.13774    0.30185  -0.5610 
N1    0.83843    0.14107    0.36456  -0.5610 
C2    0.81167    0.18845    0.33736  -0.1540 
C2    0.85016    0.19047    0.37555  -0.1540 
H1    0.77295    0.06899    0.30050   0.1070 
H2    0.88488    0.22344    0.40960   0.1210 
H2    0.80769    0.21938    0.33299   0.1210 
C1    0.68032    0.79091    0.47345   0.0810 
N1    0.69826    0.83606    0.47367  -0.5610 
N1    0.63554    0.77667    0.47416  -0.5610 
C2    0.66274    0.85125    0.47457  -0.1540 
C2    0.62454    0.81508    0.47487  -0.1540 
H1    0.69963    0.76867    0.47279   0.1070 
H2    0.59049    0.81400    0.47553   0.1210 
H2    0.66710    0.88653    0.47494   0.1210 
C1    0.79088    0.47349    0.68030   0.0810 
N1    0.83603    0.47371    0.69830  -0.5610 
N1    0.77671    0.47419    0.63552  -0.5610 
C2    0.85128    0.47461    0.66282  -0.1540 
C2    0.81515    0.47490    0.62458  -0.1540 
H1    0.76860    0.47283    0.69956   0.1070 
H2    0.81412    0.47556    0.59054   0.1210 
H2    0.88657    0.47497    0.66723   0.1210 
C1    0.68247    0.20936    0.88951   0.0810 
N1    0.63754    0.16419    0.86236  -0.5610 
N1    0.69733    0.22351    0.85888  -0.5610 
C2    0.62319    0.14892    0.81163  -0.1540 
C2    0.65960    0.18505    0.80951  -0.1540 
H1    0.70406    0.23165    0.93104   0.1070 
H2    0.66129    0.18607    0.77650   0.1210 
H2    0.58827    0.11362    0.78075   0.1210 
C1    0.68495    0.47858    0.79597   0.0810 
N1    0.64011    0.47899    0.77827  -0.5610 
N1    0.69976    0.47918    0.84140  -0.5610 
C2    0.62575    0.47989    0.81465  -0.1540 
C2    0.66209    0.48000    0.85310  -0.1540 
H1    0.70654    0.47787    0.77602   0.1070 
H2    0.66375    0.48062    0.88777   0.1210 
H2    0.59089    0.48038    0.81066   0.1210 
C1    0.68253    0.88897    0.20419   0.0810 
N1    0.70057    0.86175    0.22180  -0.5610 
N1    0.63769    0.85841    0.15875  -0.5610 
C2    0.66506    0.81104    0.18537  -0.1540 
C2    0.62677    0.80901    0.14696  -0.1540 
H1    0.70179    0.93050    0.22419   0.1070 
H2    0.59270    0.77604    0.11227   0.1210 
H2    0.66949    0.78012    0.18928   0.1210 
C1    0.31736    0.52143    0.20633   0.0810 
N1    0.29933    0.52102    0.16109  -0.5610 
N1    0.36220    0.52084    0.22062  -0.5610 
C2    0.33485    0.52012    0.14589  -0.1540 
C2    0.37314    0.52001    0.18215  -0.1540 
H1    0.29809    0.52215    0.22859   0.1070 
H2    0.40722    0.51939    0.18325   0.1210 
H2    0.33042    0.51962    0.11055   0.1210 
C1    0.31518    0.11102    0.79348   0.0810 
N1    0.36001    0.13815    0.83873  -0.5610 
N1    0.30038    0.14165    0.77927  -0.5610 
C2    0.37436    0.18889    0.85400  -0.1540 
C2    0.33804    0.19102    0.81779  -0.1540 
H1    0.29361    0.06949    0.77115   0.1070 
H2    0.33639    0.22403    0.81676   0.1210 
H2    0.40922    0.21976    0.88937   0.1210 
C1    0.47854    0.79593    0.68490   0.0810 
N1    0.47894    0.77826    0.64006  -0.5610 
N1    0.47914    0.84136    0.69975  -0.5610 
C2    0.47984    0.81466    0.62574  -0.1540 
C2    0.47996    0.85310    0.66209  -0.1540 
H1    0.47782    0.77596    0.70647   0.1070 
H2    0.48058    0.88777    0.66378   0.1210 
H2    0.48034    0.81070    0.59087   0.1210 
C1    0.79593    0.68490    0.47858   0.0810 
N1    0.77829    0.64006    0.47898  -0.5610 
N1    0.84136    0.69978    0.47918  -0.5610 
C2    0.81472    0.62576    0.47988  -0.1540 
C2    0.85313    0.66214    0.48000  -0.1540 
H1    0.77594    0.70644    0.47786   0.1070 
H2    0.88781    0.66386    0.48062   0.1210 
H2    0.81078    0.59090    0.48037   0.1210 
C1    0.11102    0.79350    0.31521   0.0810 
N1    0.13819    0.83875    0.36005  -0.5610 
N1    0.14163    0.77926    0.30038  -0.5610 
C2    0.18892    0.85399    0.37436  -0.1540 
C2    0.19101    0.81777    0.33802  -0.1540 
H1    0.06949    0.77119    0.29366   0.1070 
H2    0.22400    0.81671    0.33634   0.1210 
H2    0.21981    0.88936    0.40922   0.1210 
C1    0.20418    0.68254    0.88897   0.0810 
N1    0.22180    0.70057    0.86175  -0.5610 
N1    0.15874    0.63770    0.85841  -0.5610 
C2    0.18536    0.66507    0.81104  -0.1540 
C2    0.14696    0.62678    0.80901  -0.1540 
H1    0.22419    0.70180    0.93050   0.1070 
H2    0.11226    0.59271    0.77604   0.1210 
H2    0.18928    0.66950    0.78012   0.1210 
C1    0.88897    0.20416    0.68252   0.0810 
N1    0.86179    0.22181    0.70058  -0.5610 
N1    0.85838    0.15872    0.63768  -0.5610 
C2    0.81107    0.18540    0.66510  -0.1540 
C2    0.80900    0.14697    0.62679  -0.1540 
H1    0.93050    0.22415    0.70175   0.1070 
H2    0.77601    0.11229    0.59273   0.1210 
H2    0.78017    0.18934    0.66956   0.1210 
C1    0.20637    0.31739    0.52141   0.0810 
N1    0.16113    0.29929    0.52100  -0.5610 
N1    0.22059    0.36223    0.52082  -0.5610 
C2    0.14587    0.33477    0.52010  -0.1540 
C2    0.18209    0.37311    0.51999  -0.1540 
H1    0.22868    0.29816    0.52213   0.1070 
H2    0.18314    0.40717    0.51938   0.1210 
H2    0.11052    0.33029    0.51961   0.1210 
C1    0.52145    0.20636    0.31739   0.0810 
N1    0.52104    0.16112    0.29933  -0.5610 
N1    0.52086    0.22062    0.36223  -0.5610 
C2    0.52015    0.14590    0.33483  -0.1540 
C2    0.52003    0.18213    0.37314  -0.1540 
H1    0.52217    0.22865    0.29814   0.1070 
H2    0.51942    0.18321    0.40721   0.1210 
H2    0.51965    0.11055    0.33037   0.1210 
C1    0.79348    0.31518    0.11101   0.0810 
N1    0.83873    0.36001    0.13815  -0.5610 
N1    0.77928    0.30038    0.14165  -0.5610 
C2    0.85401    0.37436    0.18889  -0.1540 
C2    0.81780    0.33804    0.19102  -0.1540 
H1    0.77116    0.29360    0.06949   0.1070 
H2    0.81676    0.33638    0.22403   0.1210 
H2    0.88937    0.40922    0.21976   0.1210 
C1    0.53277    0.34786    0.34983   0.0810 
N1    0.50794    0.36476    0.32196  -0.5610 
N1    0.50373    0.32022    0.36405  -0.5610 
C2    0.46046    0.34676    0.31837  -0.1540 
C2    0.45789    0.31963    0.34401  -0.1540 
H1    0.57149    0.35558    0.35964   0.1070 
H2    0.42683    0.30006    0.34935   0.1210 
H2    0.43197    0.35446    0.29793   0.1210 
C1    0.99789    0.18299    0.65026   0.0810 
N1    0.04276    0.18619    0.67815  -0.5610 
N1    0.95614    0.13967    0.63610  -0.5610 
C2    0.02853    0.14234    0.68184  -0.1540 
C2    0.97576    0.11402    0.65623  -0.1540 
H1    0.99566    0.21182    0.64038   0.1070 
H2    0.95096    0.07759    0.65095   0.1210 
H2    0.05677    0.13441    0.70231   0.1210 
C1    0.46715    0.81711    0.81514   0.0810 
N1    0.49198    0.81407    0.85687  -0.5610 
N1    0.49617    0.86036    0.81654  -0.5610 
C2    0.53947    0.85797    0.88636  -0.1540 
C2    0.54202    0.88617    0.86180  -0.1540 
H1    0.42844    0.78820    0.78414   0.1070 
H2    0.57308    0.92259    0.87329   0.1210 
H2    0.56796    0.86603    0.92256   0.1210 
C1    0.00193    0.65213    0.18490   0.0810 
N1    0.95719    0.63522    0.14314  -0.5610 
N1    0.04382    0.67979    0.18356  -0.5610 
C2    0.97165    0.65326    0.11370  -0.1540 
C2    0.02442    0.68040    0.13832  -0.1540 
H1    0.00398    0.64440    0.21589   0.1070 
H2    0.04937    0.69999    0.12686   0.1210 
H2    0.94354    0.64556    0.07748   0.1210 
C1    0.34986    0.53279    0.34789   0.0810 
N1    0.32199    0.50796    0.36479  -0.5610 
N1    0.36409    0.50376    0.32026  -0.5610 
C2    0.31840    0.46047    0.34679  -0.1540 
C2    0.34404    0.45791    0.31966  -0.1540 
H1    0.35967    0.57151    0.35561   0.1070 
H2    0.34939    0.42686    0.30009   0.1210 
H2    0.29796    0.43199    0.35449   0.1210 
C1    0.34789    0.34987    0.53280   0.0810 
N1    0.36479    0.32200    0.50797  -0.5610 
N1    0.32025    0.36409    0.50376  -0.5610 
C2    0.34680    0.31840    0.46048  -0.1540 
C2    0.31967    0.34404    0.45791  -0.1540 
H1    0.35561    0.35968    0.57151   0.1070 
H2    0.30009    0.34938    0.42685   0.1210 
H2    0.35450    0.29796    0.43200   0.1210 
C1    0.18483    0.00187    0.65205   0.0810 
N1    0.14303    0.95717    0.63517  -0.5610 
N1    0.18358    0.04381    0.67974  -0.5610 
C2    0.11365    0.97171    0.65325  -0.1540 
C2    0.13835    0.02449    0.68039  -0.1540 
H1    0.21578    0.00385    0.64429   0.1070 
H2    0.12696    0.04950    0.70001   0.1210 
H2    0.07742    0.94366    0.64558   0.1210 
C1    0.18298    0.65026    0.99786   0.0810 
N1    0.18623    0.67816    0.04275  -0.5610 
N1    0.13966    0.63613    0.95614  -0.5610 
C2    0.14240    0.68188    0.02856  -0.1540 
C2    0.11404    0.65628    0.97580  -0.1540 
H1    0.21179    0.64037    0.99558   0.1070 
H2    0.07761    0.65102    0.95103   0.1210 
H2    0.13450    0.70235    0.05683   0.1210 
C1    0.65025    0.99790    0.18298   0.0810 
N1    0.67814    0.04276    0.18617  -0.5610 
N1    0.63609    0.95614    0.13967  -0.5610 
C2    0.68183    0.02852    0.14233  -0.1540 
C2    0.65622    0.97576    0.11401  -0.1540 
H1    0.64038    0.99567    0.21182   0.1070 
H2    0.65093    0.95095    0.07758   0.1210 
H2    0.70229    0.05675    0.13439   0.1210 
C1    0.81711    0.81512    0.46714   0.0810 
N1    0.81405    0.85684    0.49195  -0.5610 
N1    0.86038    0.81655    0.49618  -0.5610 
C2    0.85794    0.88635    0.53944  -0.1540 
C2    0.88616    0.86182    0.54202  -0.1540 
H1    0.78822    0.78411    0.42843   0.1070 
H2    0.92258    0.87333    0.57309   0.1210 
H2    0.86598    0.92255    0.56791   0.1210 
C1    0.81516    0.46713    0.81712   0.0810 
N1    0.85690    0.49197    0.81410  -0.5610 
N1    0.81654    0.49614    0.86037  -0.5610 
C2    0.88638    0.53945    0.85801  -0.1540 
C2    0.86180    0.54199    0.88619  -0.1540 
H1    0.78417    0.42842    0.78820   0.1070 
H2    0.87328    0.57304    0.92260   0.1210 
H2    0.92258    0.56795    0.86608   0.1210 
C1    0.65212    0.18490    0.00193   0.0810 
N1    0.63521    0.14313    0.95719  -0.5610 
N1    0.67978    0.18355    0.04382  -0.5610 
C2    0.65324    0.11369    0.97164  -0.1540 
C2    0.68039    0.13831    0.02442  -0.1540 
H1    0.64439    0.21588    0.00399   0.1070 
H2    0.69998    0.12685    0.04937   0.1210 
H2    0.64554    0.07747    0.94354   0.1210 
C1    0.65208    0.46717    0.65008   0.0810 
N1    0.63513    0.49195    0.67792  -0.5610 
N1    0.67975    0.49626    0.63592  -0.5610 
C2    0.65312    0.53946    0.68155  -0.1540 
C2    0.68031    0.54208    0.65597  -0.1540 
H1    0.64438    0.42846    0.64025   0.1070 
H2    0.69990    0.57317    0.65067   0.1210 
H2    0.64538    0.56791    0.70197   0.1210 
C1    0.81705    0.00217    0.34981   0.0810 
N1    0.81378    0.95726    0.32195  -0.5610 
N1    0.86036    0.04387    0.36389  -0.5610 
C2    0.85759    0.97140    0.31819  -0.1540 
C2    0.88595    0.02416    0.34373  -0.1540 
H1    0.78826    0.00449    0.35973   0.1070 
H2    0.92237    0.04890    0.34895   0.1210 
H2    0.86546    0.94310    0.29772   0.1210 
C1    0.18287    0.53289    0.18489   0.0810 
N1    0.18595    0.50814    0.14317  -0.5610 
N1    0.13961    0.50380    0.18344  -0.5610 
C2    0.14208    0.46062    0.11364  -0.1540 
C2    0.11386    0.45798    0.13816  -0.1540 
H1    0.21174    0.57160    0.21591   0.1070 
H2    0.07745    0.42688    0.12663   0.1210 
H2    0.13406    0.43218    0.07743   0.1210 
C1    0.34788    0.99804    0.81508   0.0810 
N1    0.36485    0.04280    0.85686  -0.5610 
N1    0.32018    0.95617    0.81644  -0.5610 
C2    0.34681    0.02839    0.88631  -0.1540 
C2    0.31960    0.97562    0.86170  -0.1540 
H1    0.35559    0.99595    0.78409   0.1070 
H2    0.29999    0.95069    0.87317   0.1210 
H2    0.35455    0.05652    0.92254   0.1210 
C1    0.46720    0.65012    0.65212   0.0810 
N1    0.49198    0.67796    0.63517  -0.5610 
N1    0.49628    0.63596    0.67979  -0.5610 
C2    0.53948    0.68159    0.65316  -0.1540 
C2    0.54211    0.65601    0.68035  -0.1540 
H1    0.42849    0.64029    0.64442   0.1070 
H2    0.57319    0.65071    0.69994   0.1210 
H2    0.56794    0.70201    0.64542   0.1210 
C1    0.65009    0.65209    0.46718   0.0810 
N1    0.67793    0.63514    0.49197  -0.5610 
N1    0.63593    0.67976    0.49626  -0.5610 
C2    0.68156    0.65314    0.53947  -0.1540 
C2    0.65597    0.68032    0.54209  -0.1540 
H1    0.64026    0.64438    0.42847   0.1070 
H2    0.65067    0.69991    0.57317   0.1210 
H2    0.70198    0.64540    0.56793   0.1210 
C1    0.99804    0.81508    0.34786   0.0810 
N1    0.04280    0.85685    0.36483  -0.5610 
N1    0.95617    0.81643    0.32016  -0.5610 
C2    0.02839    0.88630    0.34679  -0.1540 
C2    0.97561    0.86169    0.31959  -0.1540 
H1    0.99596    0.78408    0.35558   0.1070 
H2    0.95069    0.87315    0.29998   0.1210 
H2    0.05652    0.92253    0.35453   0.1210 
C1    0.34982    0.81705    0.00213   0.0810 
N1    0.32196    0.81384    0.95725  -0.5610 
N1    0.36392    0.86035    0.04386  -0.5610 
C2    0.31824    0.85766    0.97144  -0.1540 
C2    0.34379    0.88598    0.02421  -0.1540 
H1    0.35972    0.78824    0.00440   0.1070 
H2    0.34903    0.92240    0.04898   0.1210 
H2    0.29778    0.86558    0.94318   0.1210 
C1    0.00214    0.34982    0.81704   0.0810 
N1    0.95725    0.32196    0.81382  -0.5610 
N1    0.04386    0.36391    0.86035  -0.5610 
C2    0.97144    0.31823    0.85764  -0.1540 
C2    0.02420    0.34378    0.88597  -0.1540 
H1    0.00441    0.35972    0.78823   0.1070 
H2    0.04897    0.34902    0.92239   0.1210 
H2    0.94317    0.29777    0.86556   0.1210 
C1    0.18484    0.18286    0.53290   0.0810 
N1    0.14310    0.18590    0.50810  -0.5610 
N1    0.18345    0.13962    0.50385  -0.5610 
C2    0.11361    0.14201    0.46061  -0.1540 
C2    0.13818    0.11383    0.45801  -0.1540 
H1    0.21585    0.21176    0.57161   0.1070 
H2    0.12669    0.07742    0.42694   0.1210 
H2    0.07739    0.13395    0.43214   0.1210 
C1    0.53288    0.18487    0.18287   0.0810 
N1    0.50810    0.14313    0.18593  -0.5610 
N1    0.50381    0.18346    0.13963  -0.5610 
C2    0.46059    0.11363    0.14204  -0.1540 
C2    0.45798    0.13818    0.11385  -0.1540 
H1    0.57159    0.21588    0.21177   0.1070 
H2    0.42690    0.12668    0.07744   0.1210 
H2    0.43214    0.07742    0.13400   0.1210 
C1    0.81514    0.34794    0.99810   0.0810 
N1    0.85695    0.36488    0.04282  -0.5610 
N1    0.81642    0.32021    0.95619  -0.5610 
C2    0.88635    0.34680    0.02833  -0.1540 
C2    0.86167    0.31960    0.97555  -0.1540 
H1    0.78418    0.35569    0.99608   0.1070 
H2    0.87307    0.29997    0.95057   0.1210 
H2    0.92259    0.35451    0.05641   0.1210 
C1    0.61489    0.50158    0.38789   0.0810 
N1    0.59192    0.46518    0.33797  -0.5610 
N1    0.66464    0.53587    0.40683  -0.5610 
C2    0.62935    0.47717    0.32458  -0.1540 
C2    0.67364    0.52022    0.36653  -0.1540 
H1    0.59564    0.50309    0.41016   0.1070 
H2    0.71072    0.54071    0.37048   0.1210 
H2    0.62189    0.45436    0.28637   0.1210 
C1    0.11372    0.22698    0.61203   0.0810 
N1    0.12719    0.25382    0.66195  -0.5610 
N1    0.12914    0.25789    0.59321  -0.5610 
C2    0.15259    0.30466    0.67546  -0.1540 
C2    0.15377    0.30714    0.63359  -0.1540 
H1    0.09295    0.18545    0.58967   0.1070 
H2    0.17035    0.34032    0.62973   0.1210 
H2    0.16797    0.33535    0.71370   0.1210 
C1    0.38520    0.77297    0.88663   0.0810 
N1    0.40800    0.74585    0.87310  -0.5610 
N1    0.33543    0.74231    0.87124  -0.5610 
C2    0.37045    0.69510    0.84769  -0.1540 
C2    0.32625    0.69294    0.84655  -0.1540 
H1    0.40459    0.81450    0.90741   0.1070 
H2    0.28912    0.65991    0.83000   0.1210 
H2    0.37777    0.66425    0.83226   0.1210 
C1    0.88626    0.49843    0.11330   0.0810 
N1    0.87271    0.53481    0.12676  -0.5610 
N1    0.87093    0.46412    0.12875  -0.5610 
C2    0.84735    0.52278    0.15218  -0.1540 
C2    0.84626    0.47972    0.15340  -0.1540 
H1    0.90701    0.49695    0.09253   0.1070 
H2    0.82975    0.45922    0.16998   0.1210 
H2    0.83194    0.54557    0.16756   0.1210 
C1    0.38786    0.61486    0.50155   0.0810 
N1    0.33794    0.59194    0.46517  -0.5610 
N1    0.40684    0.66462    0.53586  -0.5610 
C2    0.32459    0.62939    0.47720  -0.1540 
C2    0.36656    0.67367    0.52026  -0.1540 
H1    0.41009    0.59558    0.50303   0.1070 
H2    0.37056    0.71075    0.54076   0.1210 
H2    0.28639    0.62198    0.45441   0.1210 
C1    0.50156    0.38787    0.61488   0.0810 
N1    0.46517    0.33796    0.59193  -0.5610 
N1    0.53587    0.40684    0.66463  -0.5610 
C2    0.47718    0.32459    0.62937  -0.1540 
C2    0.52024    0.36655    0.67365  -0.1540 
H1    0.50306    0.41012    0.59561   0.1070 
H2    0.54073    0.37052    0.71074   0.1210 
H2    0.45438    0.28638    0.62194   0.1210 
C1    0.11337    0.88633    0.49847   0.0810 
N1    0.12682    0.87278    0.53485  -0.5610 
N1    0.12883    0.87100    0.46416  -0.5610 
C2    0.15225    0.84742    0.52283  -0.1540 
C2    0.15347    0.84633    0.47978  -0.1540 
H1    0.09260    0.90708    0.49698   0.1070 
H2    0.17005    0.82982    0.45927   0.1210 
H2    0.16762    0.83201    0.54562   0.1210 
C1    0.22698    0.61203    0.11371   0.0810 
N1    0.25381    0.66194    0.12719  -0.5610 
N1    0.25789    0.59321    0.12913  -0.5610 
C2    0.30466    0.67546    0.15259  -0.1540 
C2    0.30714    0.63359    0.15377  -0.1540 
H1    0.18545    0.58967    0.09295   0.1070 
H2    0.34033    0.62974    0.17035   0.1210 
H2    0.33534    0.71370    0.16796   0.1210 
C1    0.61204    0.11371    0.22698   0.0810 
N1    0.66195    0.12719    0.25383  -0.5610 
N1    0.59320    0.12912    0.25788  -0.5610 
C2    0.67545    0.15259    0.30467  -0.1540 
C2    0.63357    0.15376    0.30713  -0.1540 
H1    0.58969    0.09295    0.18545   0.1070 
H2    0.62971    0.17033    0.34031   0.1210 
H2    0.71369    0.16797    0.33536   0.1210 
C1    0.77296    0.88661    0.38521   0.0810 
N1    0.74582    0.87307    0.40799  -0.5610 
N1    0.74232    0.87124    0.33544  -0.5610 
C2    0.69508    0.84767    0.37042  -0.1540 
C2    0.69295    0.84654    0.32623  -0.1540 
H1    0.81449    0.90740    0.40461   0.1070 
H2    0.65993    0.82999    0.28910   0.1210 
H2    0.66421    0.83223    0.37771   0.1210 
C1    0.88662    0.38520    0.77296   0.0810 
N1    0.87308    0.40799    0.74583  -0.5610 
N1    0.87124    0.33544    0.74232  -0.5610 
C2    0.84767    0.37043    0.69508  -0.1540 
C2    0.84654    0.32623    0.69294  -0.1540 
H1    0.90740    0.40461    0.81449   0.1070 
H2    0.82999    0.28910    0.65992   0.1210 
H2    0.83224    0.37772    0.66421   0.1210 
C1    0.49845    0.11333    0.88630   0.0810 
N1    0.53483    0.12679    0.87275  -0.5610 
N1    0.46414    0.12879    0.87097  -0.5610 
C2    0.52281    0.15222    0.84739  -0.1540 
C2    0.47975    0.15343    0.84630  -0.1540 
H1    0.49696    0.09256    0.90705   0.1070 
H2    0.45925    0.17002    0.82978   0.1210 
H2    0.54560    0.16759    0.83198   0.1210 
C1    0.38513    0.49839    0.61210   0.0810 
N1    0.40812    0.53478    0.66203  -0.5610 
N1    0.33537    0.46412    0.59317  -0.5610 
C2    0.37069    0.52280    0.67543  -0.1540 
C2    0.32639    0.47976    0.63348  -0.1540 
H1    0.40438    0.49687    0.58983   0.1070 
H2    0.28931    0.45929    0.62953   0.1210 
H2    0.37816    0.54561    0.71365   0.1210 
C1    0.88627    0.77305    0.38798   0.0810 
N1    0.87278    0.74622    0.33806  -0.5610 
N1    0.87086    0.74212    0.40680  -0.5610 
C2    0.84738    0.69537    0.32454  -0.1540 
C2    0.84622    0.69288    0.36641  -0.1540 
H1    0.90703    0.81457    0.41035   0.1070 
H2    0.82965    0.65969    0.37026   0.1210 
H2    0.83200    0.66469    0.28629   0.1210 
C1    0.61478    0.22701    0.11330   0.0810 
N1    0.59195    0.25411    0.12680  -0.5610 
N1    0.66455    0.25768    0.12871  -0.5610 
C2    0.62950    0.30487    0.15221  -0.1540 
C2    0.67371    0.30704    0.15339  -0.1540 
H1    0.59540    0.18547    0.09251   0.1070 
H2    0.71084    0.34007    0.16996   0.1210 
H2    0.62217    0.33572    0.16762   0.1210 
C1    0.11374    0.50159    0.88673   0.0810 
N1    0.12731    0.46521    0.87330  -0.5610 
N1    0.12906    0.53588    0.87126  -0.5610 
C2    0.15267    0.47723    0.84786  -0.1540 
C2    0.15374    0.52028    0.84662  -0.1540 
H1    0.09299    0.50307    0.90750   0.1070 
H2    0.17024    0.54077    0.83003   0.1210 
H2    0.16809    0.45445    0.83251   0.1210 
C1    0.61214    0.38516    0.49842   0.0810 
N1    0.66207    0.40810    0.53478  -0.5610 
N1    0.59316    0.33540    0.46412  -0.5610 
C2    0.67542    0.37065    0.52277  -0.1540 
C2    0.63344    0.32636    0.47973  -0.1540 
H1    0.58990    0.40444    0.49693   0.1070 
H2    0.62945    0.28927    0.45923   0.1210 
H2    0.71363    0.37808    0.54555   0.1210 
C1    0.49840    0.61212    0.38515   0.0810 
N1    0.53478    0.66205    0.40811  -0.5610 
N1    0.46412    0.59316    0.33539  -0.5610 
C2    0.52278    0.67542    0.37067  -0.1540 
C2    0.47975    0.63346    0.32637  -0.1540 
H1    0.49690    0.58986    0.40441   0.1070 
H2    0.45926    0.62949    0.28929   0.1210 
H2    0.54558    0.71363    0.37812   0.1210 
C1    0.88672    0.11373    0.50158   0.0810 
N1    0.87329    0.12729    0.46521  -0.5610 
N1    0.87124    0.12905    0.53588  -0.5610 
C2    0.84785    0.15265    0.47722  -0.1540 
C2    0.84661    0.15372    0.52026  -0.1540 
H1    0.90748    0.09298    0.50308   0.1070 
H2    0.83001    0.17023    0.54075   0.1210 
H2    0.83250    0.16807    0.45443   0.1210 
C1    0.77305    0.38798    0.88626   0.0810 
N1    0.74622    0.33806    0.87277  -0.5610 
N1    0.74212    0.40680    0.87085  -0.5610 
C2    0.69538    0.32453    0.84737  -0.1540 
C2    0.69288    0.36640    0.84621  -0.1540 
H1    0.81457    0.41035    0.90702   0.1070 
H2    0.65969    0.37025    0.82964   0.1210 
H2    0.66470    0.28628    0.83199   0.1210 
C1    0.38798    0.88628    0.77305   0.0810 
N1    0.33805    0.87279    0.74621  -0.5610 
N1    0.40681    0.87088    0.74214  -0.5610 
C2    0.32454    0.84739    0.69537  -0.1540 
C2    0.36643    0.84623    0.69289  -0.1540 
H1    0.41033    0.90704    0.81457   0.1070 
H2    0.37029    0.82967    0.65971   0.1210 
H2    0.28630    0.83200    0.66468   0.1210 
C1    0.22702    0.11332    0.61477   0.0810 
N1    0.25414    0.12684    0.59197  -0.5610 
N1    0.25766    0.12873    0.66454  -0.5610 
C2    0.30489    0.15225    0.62953  -0.1540 
C2    0.30703    0.15341    0.67374  -0.1540 
H1    0.18548    0.09254    0.59537   0.1070 
H2    0.34006    0.16997    0.71087   0.1210 
H2    0.33576    0.16766    0.62223   0.1210 
C1    0.11331    0.61477    0.22702   0.0810 
N1    0.12682    0.59197    0.25414  -0.5610 
N1    0.12872    0.66454    0.25767  -0.5610 
C2    0.15224    0.62952    0.30489  -0.1540 
C2    0.15340    0.67373    0.30704  -0.1540 
H1    0.09253    0.59537    0.18548   0.1070 
H2    0.16996    0.71087    0.34006   0.1210 
H2    0.16765    0.62221    0.33575   0.1210 
C1    0.50159    0.88672    0.11373   0.0810 
N1    0.46521    0.87330    0.12730  -0.5610 
N1    0.53588    0.87125    0.12905  -0.5610 
C2    0.47723    0.84786    0.15266  -0.1540 
C2    0.52027    0.84662    0.15373  -0.1540 
H1    0.50308    0.90749    0.09298   0.1070 
H2    0.54076    0.83002    0.17024   0.1210 
H2    0.45444    0.83251    0.16808   0.1210 
C1    0.46619    0.46771    0.29404   0.0810 
N1    0.46949    0.42658    0.26811  -0.5610 
N1    0.42441    0.46817    0.26470  -0.5610 
C2    0.42734    0.39947    0.21957  -0.1540 
C2    0.39987    0.42480    0.21749  -0.1540 
H1    0.49386    0.49695    0.33376   0.1070 
H2    0.36479    0.41505    0.18590   0.1210 
H2    0.41987    0.36425    0.19006   0.1210 
C1    0.17343    0.17191    0.70580   0.0810 
N1    0.15822    0.20114    0.73173  -0.5610 
N1    0.20320    0.15944    0.73514  -0.5610 
C2    0.17965    0.20751    0.78027  -0.1540 
C2    0.20704    0.18212    0.78235  -0.1540 
H1    0.16295    0.15987    0.66609   0.1070 
H2    0.22887    0.17862    0.81394   0.1210 
H2    0.17393    0.22955    0.80978   0.1210 
C1    0.53384    0.82798    0.00150   0.0810 
N1    0.53065    0.79894    0.95708  -0.5610 
N1    0.57546    0.84020    0.04374  -0.5610 
C2    0.57273    0.79243    0.97213  -0.1540 
C2    0.60003    0.81755    0.02492  -0.1540 
H1    0.50620    0.84008    0.00307   0.1070 
H2    0.63500    0.82088    0.05025   0.1210 
H2    0.58027    0.77049    0.94439   0.1210 
C1    0.82634    0.53231    0.99858   0.0810 
N1    0.84151    0.57349    0.04294  -0.5610 
N1    0.79653    0.53174    0.95627  -0.5610 
C2    0.82003    0.60053    0.02779  -0.1540 
C2    0.79264    0.57510    0.97499  -0.1540 
H1    0.83687    0.50312    0.99710   0.1070 
H2    0.77076    0.58478    0.94959   0.1210 
H2    0.82571    0.63576    0.05546   0.1210 
C1    0.29406    0.46618    0.46769   0.0810 
N1    0.26814    0.46946    0.42655  -0.5610 
N1    0.26471    0.42441    0.46817  -0.5610 
C2    0.21959    0.42731    0.39944  -0.1540 
C2    0.21750    0.39987    0.42480  -0.1540 
H1    0.33378    0.49384    0.49692   0.1070 
H2    0.18590    0.36480    0.41506   0.1210 
H2    0.19009    0.41983    0.36421   0.1210 
C1    0.46768    0.29407    0.46617   0.0810 
N1    0.42652    0.26816    0.46944  -0.5610 
N1    0.46818    0.26472    0.42442  -0.5610 
C2    0.39943    0.21961    0.42730  -0.1540 
C2    0.42480    0.21751    0.39988  -0.1540 
H1    0.49691    0.33379    0.49382   0.1070 
H2    0.41508    0.18590    0.36482   0.1210 
H2    0.36420    0.19011    0.41981   0.1210 
C1    0.99857    0.82623    0.53225   0.0810 
N1    0.04294    0.84140    0.57343  -0.5610 
N1    0.95626    0.79642    0.53168  -0.5610 
C2    0.02779    0.81992    0.60047  -0.1540 
C2    0.97500    0.79253    0.57504  -0.1540 
H1    0.99709    0.83676    0.50306   0.1070 
H2    0.94959    0.77065    0.58472   0.1210 
H2    0.05547    0.82561    0.63571   0.1210 
C1    0.17189    0.70579    0.17341   0.0810 
N1    0.20111    0.73172    0.15819  -0.5610 
N1    0.15944    0.73513    0.20319  -0.5610 
C2    0.20749    0.78026    0.17962  -0.1540 
C2    0.18211    0.78234    0.20703  -0.1540 
H1    0.15984    0.66608    0.16293   0.1070 
H2    0.17862    0.81394    0.22887   0.1210 
H2    0.22952    0.80977    0.17390   0.1210 
C1    0.70582    0.17346    0.17194   0.0810 
N1    0.73174    0.15824    0.20116  -0.5610 
N1    0.73516    0.20324    0.15948  -0.5610 
C2    0.78029    0.17967    0.20754  -0.1540 
C2    0.78237    0.20707    0.18216  -0.1540 
H1    0.66611    0.16298    0.15989   0.1070 
H2    0.81396    0.22892    0.17866   0.1210 
H2    0.80979    0.17395    0.22957   0.1210 
C1    0.82804    0.00150    0.53386   0.0810 
N1    0.79901    0.95708    0.53069  -0.5610 
N1    0.84023    0.04374    0.57548  -0.5610 
C2    0.79248    0.97213    0.57276  -0.1540 
C2    0.81758    0.02491    0.60004  -0.1540 
H1    0.84015    0.00307    0.50623   0.1070 
H2    0.82090    0.05024    0.63500   0.1210 
H2    0.77055    0.94438    0.58030   0.1210 
C1    0.00150    0.53382    0.82795   0.0810 
N1    0.95708    0.53065    0.79893  -0.5610 
N1    0.04374    0.57543    0.84015  -0.5610 
C2    0.97213    0.57271    0.79240  -0.1540 
C2    0.02492    0.60000    0.81750  -0.1540 
H1    0.00307    0.50619    0.84006   0.1070 
H2    0.05025    0.63496    0.82082   0.1210 
H2    0.94439    0.58026    0.77046   0.1210 
C1    0.53229    0.99856    0.82631   0.0810 
N1    0.57346    0.04294    0.84149  -0.5610 
N1    0.53174    0.95626    0.79650  -0.5610 
C2    0.60052    0.02780    0.82002  -0.1540 
C2    0.57510    0.97501    0.79262  -0.1540 
H1    0.50309    0.99707    0.83683   0.1070 
H2    0.58479    0.94962    0.77075   0.1210 
H2    0.63575    0.05549    0.82571   0.1210 
C1    0.53228    0.53384    0.70593   0.0810 
N1    0.57339    0.53049    0.73181  -0.5610 
N1    0.53186    0.57564    0.73532  -0.5610 
C2    0.60054    0.57263    0.78037  -0.1540 
C2    0.57524    0.60013    0.78251  -0.1540 
H1    0.50302    0.50621    0.66622   0.1070 
H2    0.58503    0.63520    0.81414   0.1210 
H2    0.63576    0.58006    0.80985   0.1210 
C1    0.82812    0.82656    0.29421   0.0810 
N1    0.79887    0.84177    0.26832  -0.5610 
N1    0.84059    0.79682    0.26484  -0.5610 
C2    0.79247    0.82038    0.21976  -0.1540 
C2    0.81788    0.79301    0.21765  -0.1540 
H1    0.84019    0.83701    0.33391   0.1070 
H2    0.82137    0.77120    0.18603   0.1210 
H2    0.77041    0.82611    0.19028   0.1210 
C1    0.17194    0.46612    0.99845   0.0810 
N1    0.20099    0.46936    0.04291  -0.5610 
N1    0.15974    0.42447    0.95624  -0.5610 
C2    0.20754    0.42730    0.02791  -0.1540 
C2    0.18242    0.39995    0.97513  -0.1540 
H1    0.15981    0.49373    0.99683   0.1070 
H2    0.17911    0.36497    0.94984   0.1210 
H2    0.22950    0.41980    0.05569   0.1210 
C1    0.46775    0.17374    0.00149   0.0810 
N1    0.42662    0.15856    0.95708  -0.5610 
N1    0.46823    0.20350    0.04375  -0.5610 
C2    0.39951    0.17999    0.97216  -0.1540 
C2    0.42486    0.20736    0.02495  -0.1540 
H1    0.49698    0.16324    0.00303   0.1070 
H2    0.41512    0.22920    0.05030   0.1210 
H2    0.36430    0.17429    0.94443   0.1210 
C1    0.53382    0.70596    0.53225   0.0810 
N1    0.53044    0.73185    0.57334  -0.5610 
N1    0.57564    0.73533    0.53187  -0.5610 
C2    0.57260    0.78040    0.60051  -0.1540 
C2    0.60013    0.78252    0.57524  -0.1540 
H1    0.50618    0.66625    0.50299   0.1070 
H2    0.63523    0.81414    0.58505   0.1210 
H2    0.58001    0.80989    0.63571   0.1210 
C1    0.70594    0.53227    0.53383   0.0810 
N1    0.73183    0.57337    0.53048  -0.5610 
N1    0.73532    0.53187    0.57564  -0.5610 
C2    0.78038    0.60053    0.57262  -0.1540 
C2    0.78251    0.57525    0.60013  -0.1540 
H1    0.66623    0.50301    0.50620   0.1070 
H2    0.81414    0.58504    0.63522   0.1210 
H2    0.80986    0.63574    0.58004   0.1210 
C1    0.17371    0.00147    0.46773   0.0810 
N1    0.15854    0.95707    0.42659  -0.5610 
N1    0.20348    0.04375    0.46822  -0.5610 
C2    0.17998    0.97217    0.39950  -0.1540 
C2    0.20734    0.02496    0.42486  -0.1540 
H1    0.16320    0.00299    0.49695   0.1070 
H2    0.22918    0.05033    0.41513   0.1210 
H2    0.17429    0.94446    0.36428   0.1210 
C1    0.29418    0.82807    0.82651   0.0810 
N1    0.26829    0.79882    0.84172  -0.5610 
N1    0.26481    0.84054    0.79677  -0.5610 
C2    0.21974    0.79243    0.82033  -0.1540 
C2    0.21762    0.81783    0.79296  -0.1540 
H1    0.33389    0.84014    0.83696   0.1070 
H2    0.18601    0.82133    0.77115   0.1210 
H2    0.19026    0.77036    0.82606   0.1210 
C1    0.82654    0.29420    0.82810   0.0810 
N1    0.84174    0.26830    0.79884  -0.5610 
N1    0.79681    0.26483    0.84058  -0.5610 
C2    0.82036    0.21975    0.79245  -0.1540 
C2    0.79300    0.21764    0.81787  -0.1540 
H1    0.83698    0.33390    0.84017   0.1070 
H2    0.77120    0.18603    0.82137   0.1210 
H2    0.82608    0.19027    0.77038   0.1210 
C1    0.99845    0.17203    0.46617   0.0810 
N1    0.04290    0.20108    0.46941  -0.5610 
N1    0.95624    0.15983    0.42452  -0.5610 
C2    0.02791    0.20763    0.42734  -0.1540 
C2    0.97513    0.18251    0.40000  -0.1540 
H1    0.99683    0.15990    0.49378   0.1070 
H2    0.94983    0.17919    0.36502   0.1210 
H2    0.05569    0.22959    0.41985   0.1210 
C1    0.46615    0.99845    0.17200   0.0810 
N1    0.46941    0.04290    0.20108  -0.5610 
N1    0.42448    0.95624    0.15978  -0.5610 
C2    0.42733    0.02791    0.20761  -0.1540 
C2    0.39996    0.97513    0.18245  -0.1540 
H1    0.49376    0.99683    0.15989   0.1070 
H2    0.36497    0.94984    0.17912   0.1210 
H2    0.41984    0.05569    0.22958   0.1210 
C1    0.00147    0.46779    0.17382   0.0810 
N1    0.95707    0.42665    0.15864  -0.5610 
N1    0.04375    0.46828    0.20359  -0.5610 
C2    0.97217    0.39956    0.18008  -0.1540 
C2    0.02496    0.42492    0.20745  -0.1540 
H1    0.00300    0.49701    0.16332   0.1070 
H2    0.05033    0.41519    0.22929   0.1210 
H2    0.94445    0.36434    0.17439   0.1210 
